
14 Output channels have been added


Next available addresses are:
  CHANNEL    VAR    ICON
      41      40      25

14 Output channels have been added


Next available addresses are:
  CHANNEL    VAR    ICON
      55      40      25

Output completed

Output completed

14 diagonal and 24 off-diagonal elements

Model GENROU Bus 2 [BUS2        69.000] Machine "1 " :
X''D =  0.2800     and Imaginary part of complex machine impedance (ZSORCE) =  0.1300     differ by > 0.000005

Model GENROU Bus 3 [BUS3        69.000] Machine "1 " :
X''D =  0.3400     and Imaginary part of complex machine impedance (ZSORCE) =  0.1300     differ by > 0.000005

Model GENROU Bus 6 [BUS6        138.00] Machine "1 " :
X''D =  0.2800     and Imaginary part of complex machine impedance (ZSORCE) =  0.1200     differ by > 0.000005

Model GENROU Bus 8 [BUS8        69.000] Machine "1 " :
X''D =  0.3400     and Imaginary part of complex machine impedance (ZSORCE) =  0.1200     differ by > 0.000005

Model TGOV1 Bus 6 [BUS6        138.00] Machine "1 " :
    PMECH Initialized out of limit: PMECH (pu on Trate)=  0.3000       VMIN=  0.3000

    PTI INTERACTIVE POWER SYSTEM SIMULATOR--PSS(R)E     TUE, AUG 06 2024  17:17
 IEEE 14 BUS TEST CASE
 03/06/14 CONTO           100.0  1962 W

INITIAL CONDITION LOAD FLOW USED 1 ITERATIONS

----------------------------- MACHINE INITIAL CONDITIONS -----------------------------
  BUS#-SCT X-- NAME --X BASKV ID  ETERM   EFD    POWER    VARS   P.F.  ANGLE   ID     IQ
     1     BUS1        69.000 1  1.0300 1.8936   81.46    1.96 0.9997  49.33 0.6123 0.5010
     2     BUS2        69.000 1  1.0197 1.5480   40.00   15.00 0.9363  22.90 0.2966 0.2959
     3     BUS3        69.000 1  1.0004 1.4984   40.00   15.00 0.9363  21.38 0.3040 0.2999
     6     BUS6        138.00 1  0.9987 1.3599   30.00   10.00 0.9487  14.63 0.2008 0.2448
     8     BUS8        69.000 1  1.0189 1.4134   35.00   10.00 0.9615  20.90 0.2211 0.2806

INITIAL CONDITIONS CHECK O.K.

Channel output file is "ieee_14\ieee14_run_trip_reduced_inertia.outx"

Channel output file is "ieee_14\ieee14_run_trip_reduced_inertia.outx"

   TIME X- VALUE --X X--------- IDENTIFIER ---------X X- VALUE --X X--------- IDENTIFIER ---------X
-0.0083   49.326     ANGL     1[BUS1        69.000]1    22.904     ANGL     2[BUS2        69.000]1
    3     21.385     ANGL     3[BUS3        69.000]1    14.630     ANGL     6[BUS6        138.00]1
    5     20.896     ANGL     8[BUS8        69.000]1   0.81462     POWR     1[BUS1        69.000]1
    7    0.39999     POWR     2[BUS2        69.000]1   0.40000     POWR     3[BUS3        69.000]1
    9    0.30000     POWR     6[BUS6        138.00]1   0.35000     POWR     8[BUS8        69.000]1
   11    1.96210E-02 VARS     1[BUS1        69.000]1   0.15000     VARS     2[BUS2        69.000]1
   13    0.15000     VARS     3[BUS3        69.000]1   0.10000     VARS     6[BUS6        138.00]1
   15    0.10000     VARS     8[BUS8        69.000]1    0.0000     SPD      1[BUS1        69.000]1
   17     0.0000     SPD      2[BUS2        69.000]1    0.0000     SPD      3[BUS3        69.000]1
   19     0.0000     SPD      6[BUS6        138.00]1    0.0000     SPD      8[BUS8        69.000]1
   21     25.828     AVERAGE ANGLE                      49.326     LARGEST ANGLE
   23     1.0000     BUS WITH LARGEST ANGLE             14.630     SMALLEST ANGLE
   25     6.0000     BUS WITH SMALLEST ANGLE            34.696     ANGLE SPREAD
   27     1.0300     VOLT      1 [BUS1        69.000]   1.0197     VOLT      2 [BUS2        69.000]
   29     1.0004     VOLT      3 [BUS3        69.000]  0.99858     VOLT      4 [BUS4        69.000]
   31     1.0044     VOLT      5 [BUS5        69.000]  0.99871     VOLT      6 [BUS6        138.00]
   33     1.0068     VOLT      7 [BUS7        138.00]   1.0189     VOLT      8 [BUS8        69.000]
   35     1.0019     VOLT      9 [BUS9        138.00]  0.99350     VOLT     10 [BUS10       138.00]
   37    0.99244     VOLT     11 [BUS11       138.00]  0.98640     VOLT     12 [BUS12       138.00]
   39    0.98403     VOLT     13 [BUS13       138.00]  0.99063     VOLT     14 [BUS14       138.00]
   41     0.0000     FREQ      1 [BUS1        69.000]   0.0000     FREQ      2 [BUS2        69.000]
   43     0.0000     FREQ      3 [BUS3        69.000]   0.0000     FREQ      4 [BUS4        69.000]
   45     0.0000     FREQ      5 [BUS5        69.000]   0.0000     FREQ      6 [BUS6        138.00]
   47     0.0000     FREQ      7 [BUS7        138.00]   0.0000     FREQ      8 [BUS8        69.000]
   49     0.0000     FREQ      9 [BUS9        138.00]   0.0000     FREQ     10 [BUS10       138.00]
   51     0.0000     FREQ     11 [BUS11       138.00]   0.0000     FREQ     12 [BUS12       138.00]
   53     0.0000     FREQ     13 [BUS13       138.00]   0.0000     FREQ     14 [BUS14       138.00]

-0.0042   49.326       22.904       21.385       14.630       20.896      0.81462
    7    0.39999      0.40000      0.30000      0.35000      1.96210E-02  0.15000
   13    0.15000      0.10000      0.10000      2.79419E-10 -6.20931E-11  4.65699E-11
   19    2.98047E-09 -1.86279E-10   25.828       49.326       1.0000       14.630
   25     6.0000       34.696       1.0300       1.0197       1.0004      0.99858
   31     1.0044      0.99871       1.0068       1.0189       1.0019      0.99350
   37    0.99244      0.98640      0.98403      0.99063     -7.78172E-10 -5.92898E-10
   43   -2.96449E-10 -5.92898E-10 -5.92898E-10  1.18580E-09  5.92898E-10  4.44674E-10
   49   -1.18580E-09  1.18580E-09 -5.92898E-10   0.0000       0.0000     -1.18580E-09

 0.0000   49.326       22.904       21.385       14.630       20.896      0.81462
    7    0.39999      0.40000      0.30000      0.35000      1.96210E-02  0.15000
   13    0.15000      0.10000      0.10000      3.72559E-10 -1.65582E-10 -1.55233E-11
   19    5.01402E-09 -3.57036E-10   25.828       49.326       1.0000       14.630
   25     6.0000       34.696       1.0300       1.0197       1.0004      0.99858
   31     1.0044      0.99871       1.0068       1.0189       1.0019      0.99350
   37    0.99244      0.98640      0.98403      0.99063     -9.47107E-10 -8.15229E-10
   43   -5.55839E-10 -1.11168E-09 -1.11168E-09 -7.41135E-10 -7.41182E-11  9.26359E-11
   49   -2.22336E-09 -1.48236E-10 -1.70458E-09 -1.18580E-09 -1.18580E-09 -2.22336E-09

 0.0042   49.326       22.904       21.385       14.630       20.896      0.81462
    7    0.39999      0.40000      0.30000      0.35000      1.96210E-02  0.15000
   13    0.15000      0.10000      0.10000      5.89885E-10 -2.48373E-10 -4.65699E-11
   19    7.03205E-09 -5.12268E-10   25.828       49.326       1.0000       14.630
   25     6.0000       34.696       1.0300       1.0197       1.0004      0.99858
   31     1.0044      0.99871       1.0068       1.0189       1.0019      0.99350
   37    0.99244      0.98640      0.98403      0.99063     -8.08279E-10 -7.13318E-10
   43   -4.86354E-10 -9.72708E-10 -3.79809E-10 -6.48486E-10 -6.48527E-11  2.29280E-10
   49   -1.94542E-09 -1.29705E-10 -1.49149E-09 -1.03756E-09 -1.03756E-09 -1.94542E-09

 0.0083   49.326       22.904       21.385       14.630       20.896      0.81462
    7    0.39999      0.40000      0.30000      0.35000      1.96210E-02  0.15000
   13    0.15000      0.10000      0.10000      7.76164E-10 -3.31163E-10 -7.76164E-11
   19    9.05007E-09 -6.67501E-10   25.828       49.326       1.0000       14.630
   25     6.0000       34.696       1.0300       1.0197       1.0004      0.99858
   31     1.0044      0.99871       1.0068       1.0189       1.0019      0.99350
   37    0.99244      0.98640      0.98403      0.99063     -7.11588E-10 -6.24146E-10
   43   -4.25555E-10 -8.51109E-10 -3.32329E-10 -5.67418E-10 -5.67455E-11  2.00618E-10
   49   -1.70222E-09 -1.13491E-10 -1.30504E-09 -9.07855E-10 -9.07855E-10 -1.70222E-09

   TIME X- VALUE --X X--------- IDENTIFIER ---------X X- VALUE --X X--------- IDENTIFIER ---------X
 0.0125   49.326     ANGL     1[BUS1        69.000]1    22.904     ANGL     2[BUS2        69.000]1
    3     21.385     ANGL     3[BUS3        69.000]1    14.630     ANGL     6[BUS6        138.00]1
    5     20.896     ANGL     8[BUS8        69.000]1   0.81462     POWR     1[BUS1        69.000]1
    7    0.39999     POWR     2[BUS2        69.000]1   0.40000     POWR     3[BUS3        69.000]1
    9    0.30000     POWR     6[BUS6        138.00]1   0.35000     POWR     8[BUS8        69.000]1
   11    1.96210E-02 VARS     1[BUS1        69.000]1   0.15000     VARS     2[BUS2        69.000]1
   13    0.15000     VARS     3[BUS3        69.000]1   0.10000     VARS     6[BUS6        138.00]1
   15    0.10000     VARS     8[BUS8        69.000]1   9.62444E-10 SPD      1[BUS1        69.000]1
   17   -4.13954E-10 SPD      2[BUS2        69.000]1  -1.08663E-10 SPD      3[BUS3        69.000]1
   19    1.10681E-08 SPD      6[BUS6        138.00]1  -8.22734E-10 SPD      8[BUS8        69.000]1
   21     25.828     AVERAGE ANGLE                      49.326     LARGEST ANGLE
   23     1.0000     BUS WITH LARGEST ANGLE             14.630     SMALLEST ANGLE
   25     6.0000     BUS WITH SMALLEST ANGLE            34.696     ANGLE SPREAD
   27     1.0300     VOLT      1 [BUS1        69.000]   1.0197     VOLT      2 [BUS2        69.000]
   29     1.0004     VOLT      3 [BUS3        69.000]  0.99858     VOLT      4 [BUS4        69.000]
   31     1.0044     VOLT      5 [BUS5        69.000]  0.99871     VOLT      6 [BUS6        138.00]
   33     1.0068     VOLT      7 [BUS7        138.00]   1.0189     VOLT      8 [BUS8        69.000]
   35     1.0019     VOLT      9 [BUS9        138.00]  0.99350     VOLT     10 [BUS10       138.00]
   37    0.99244     VOLT     11 [BUS11       138.00]  0.98640     VOLT     12 [BUS12       138.00]
   39    0.98403     VOLT     13 [BUS13       138.00]  0.99063     VOLT     14 [BUS14       138.00]
   41   -6.22286E-10 FREQ      1 [BUS1        69.000] -5.46121E-10 FREQ      2 [BUS2        69.000]
   43   -3.72356E-10 FREQ      3 [BUS3        69.000] -7.44712E-10 FREQ      4 [BUS4        69.000]
   45   -2.90785E-10 FREQ      5 [BUS5        69.000] -4.96485E-10 FREQ      6 [BUS6        138.00]
   47   -4.96517E-11 FREQ      7 [BUS7        138.00]  1.75539E-10 FREQ      8 [BUS8        69.000]
   49   -1.48942E-09 FREQ      9 [BUS9        138.00] -9.93034E-11 FREQ     10 [BUS10       138.00]
   51   -1.14189E-09 FREQ     11 [BUS11       138.00] -7.94364E-10 FREQ     12 [BUS12       138.00]
   53   -7.94364E-10 FREQ     13 [BUS13       138.00] -1.48942E-09 FREQ     14 [BUS14       138.00]

 0.0167   49.326       22.904       21.385       14.630       20.896      0.81462
    7    0.39999      0.40000      0.30000      0.35000      1.96210E-02  0.15000
   13    0.15000      0.10000      0.10000      1.14872E-09 -4.96745E-10 -1.39710E-10
   19    1.30861E-08 -9.77967E-10   25.828       49.326       1.0000       14.630
   25     6.0000       34.696       1.0300       1.0197       1.0004      0.99858
   31     1.0044      0.99871       1.0068       1.0189       1.0019      0.99350
   37    0.99244      0.98640      0.98403      0.99063     -5.44564E-10 -4.77851E-10
   43   -3.25808E-10 -6.51616E-10 -2.54434E-10 -4.34420E-10 -4.34448E-11  1.53594E-10
   49   -1.30323E-09 -8.68895E-11 -9.99146E-10 -6.95060E-10 -6.95060E-10 -1.30323E-09

 0.0208   49.326       22.904       21.385       14.630       20.896      0.81462
    7    0.39999      0.40000      0.30000      0.35000      1.96210E-02  0.15000
   13    0.15000      0.10000      0.10000      1.33500E-09 -5.17443E-10 -7.76164E-11
   19    1.50576E-08 -1.08663E-09   25.828       49.326       1.0000       14.630
   25     6.0000       34.696       1.0300       1.0197       1.0004      0.99858
   31     1.0044      0.99871       1.0068       1.0189       1.0019      0.99350
   37    0.99244      0.98640      0.98403      0.99063     -2.14902E-10 -1.21665E-10
   43    1.13705E-11  2.27411E-11 -2.22627E-10  1.39858E-09  5.54885E-10  2.82618E-10
   49    4.54822E-11  1.10977E-09  3.11554E-10  5.77626E-10  5.77626E-10  4.54822E-11

Power flow data changed for load "1" at bus 11 [BUS11       138.00]:
X--ORIGINAL--X  X-NEW VALUE--X  DATA ITEM
   3.50000         2.30748      PL

Channel output file is "ieee_14\ieee14_run_trip_reduced_inertia.outx"

14 diagonal and 24 off-diagonal elements

   TIME X- VALUE --X X--------- IDENTIFIER ---------X X- VALUE --X X--------- IDENTIFIER ---------X
 0.0208   49.326     ANGL     1[BUS1        69.000]1    22.904     ANGL     2[BUS2        69.000]1
    3     21.385     ANGL     3[BUS3        69.000]1    14.630     ANGL     6[BUS6        138.00]1
    5     20.896     ANGL     8[BUS8        69.000]1   0.81377     POWR     1[BUS1        69.000]1
    7    0.39837     POWR     2[BUS2        69.000]1   0.39866     POWR     3[BUS3        69.000]1
    9    0.29376     POWR     6[BUS6        138.00]1   0.34794     POWR     8[BUS8        69.000]1
   11    1.95465E-02 VARS     1[BUS1        69.000]1   0.14970     VARS     2[BUS2        69.000]1
   13    0.14984     VARS     3[BUS3        69.000]1   9.96746E-02 VARS     6[BUS6        138.00]1
   15    9.94305E-02 VARS     8[BUS8        69.000]1   1.33500E-09 SPD      1[BUS1        69.000]1
   17   -5.17443E-10 SPD      2[BUS2        69.000]1  -7.76164E-11 SPD      3[BUS3        69.000]1
   19    1.50576E-08 SPD      6[BUS6        138.00]1  -1.08663E-09 SPD      8[BUS8        69.000]1
   21     25.828     AVERAGE ANGLE                      49.326     LARGEST ANGLE
   23     1.0000     BUS WITH LARGEST ANGLE             14.630     SMALLEST ANGLE
   25     6.0000     BUS WITH SMALLEST ANGLE            34.696     ANGLE SPREAD
   27     1.0301     VOLT      1 [BUS1        69.000]   1.0197     VOLT      2 [BUS2        69.000]
   29     1.0004     VOLT      3 [BUS3        69.000]  0.99870     VOLT      4 [BUS4        69.000]
   31     1.0045     VOLT      5 [BUS5        69.000]  0.99878     VOLT      6 [BUS6        138.00]
   33     1.0070     VOLT      7 [BUS7        138.00]   1.0190     VOLT      8 [BUS8        69.000]
   35     1.0021     VOLT      9 [BUS9        138.00]  0.99385     VOLT     10 [BUS10       138.00]
   37    0.99320     VOLT     11 [BUS11       138.00]  0.98648     VOLT     12 [BUS12       138.00]
   39    0.98412     VOLT     13 [BUS13       138.00]  0.99078     VOLT     14 [BUS14       138.00]
   41   -2.14902E-10 FREQ      1 [BUS1        69.000] -1.21665E-10 FREQ      2 [BUS2        69.000]
   43    1.13705E-11 FREQ      3 [BUS3        69.000]  2.27411E-11 FREQ      4 [BUS4        69.000]
   45   -2.22627E-10 FREQ      5 [BUS5        69.000]  1.39858E-09 FREQ      6 [BUS6        138.00]
   47    5.54885E-10 FREQ      7 [BUS7        138.00]  2.82618E-10 FREQ      8 [BUS8        69.000]
   49    4.54822E-11 FREQ      9 [BUS9        138.00]  1.10977E-09 FREQ     10 [BUS10       138.00]
   51    3.11554E-10 FREQ     11 [BUS11       138.00]  5.77626E-10 FREQ     12 [BUS12       138.00]
   53    5.77626E-10 FREQ     13 [BUS13       138.00]  4.54822E-11 FREQ     14 [BUS14       138.00]

 0.0250   49.326       22.904       21.385       14.630       20.896      0.81363
    7    0.39830      0.39855      0.29419      0.34786      1.95768E-02  0.14970
   13    0.14984      9.95601E-02  9.94363E-02  6.65235E-07  8.44172E-07  1.04577E-06
   19    4.88909E-06  1.61271E-06   25.828       49.326       1.0000       14.630
   25     6.0000       34.696       1.0301       1.0197       1.0004      0.99870
   31     1.0045      0.99877       1.0070       1.0190       1.0021      0.99385
   37    0.99319      0.98647      0.98412      0.99078     -2.06746E-10 -1.06456E-10
   43    9.94911E-12  1.98982E-11 -1.94796E-10  1.22375E-09  4.85519E-10  2.47288E-10
   49    3.97964E-11  9.71037E-10  2.72606E-10  5.05417E-10  5.05417E-10  3.97964E-11

 0.0292   49.326       22.904       21.385       14.631       20.896      0.81343
    7    0.39818      0.39838      0.29478      0.34776      1.96202E-02  0.14969
   13    0.14983      9.94305E-02  9.94418E-02  1.98378E-06  2.33118E-06  2.96897E-06
   19    1.23401E-05  4.41619E-06   25.828       49.326       1.0000       14.631
   25     6.0000       34.696       1.0301       1.0197       1.0004      0.99871
   31     1.0046      0.99877       1.0070       1.0190       1.0021      0.99384
   37    0.99319      0.98647      0.98411      0.99077      3.96498E-06  4.23646E-06
   43    3.85800E-06  5.18195E-06  5.48948E-06  1.08108E-05  5.71656E-06  4.71717E-06
   49    6.61204E-06  7.31366E-06  9.01467E-06  1.04592E-05  1.01354E-05  8.01958E-06

 0.0333   49.327       22.905       21.385       14.632       20.897      0.81331
    7    0.39811      0.39828      0.29511      0.34771      1.96421E-02  0.14968
   13    0.14982      9.93811E-02  9.94383E-02  3.31773E-06  3.62867E-06  4.74300E-06
   19    1.74675E-05  6.79979E-06   25.829       49.327       1.0000       14.632
   25     6.0000       34.695       1.0301       1.0197       1.0004      0.99871
   31     1.0046      0.99877       1.0070       1.0190       1.0021      0.99384
   37    0.99319      0.98647      0.98411      0.99077      1.00731E-05  1.07136E-05
   43    9.90026E-06  1.29337E-05  1.36036E-05  2.57083E-05  1.42571E-05  1.19844E-05
   49    1.63521E-05  1.79396E-05  2.17266E-05  2.49678E-05  2.42660E-05  1.96090E-05

 0.0375   49.327       22.905       21.386       14.634       20.897      0.81320
    7    0.39804      0.39820      0.29541      0.34766      1.96637E-02  0.14967
   13    0.14980      9.93358E-02  9.94337E-02  4.73532E-06  4.96187E-06  6.57923E-06
   19    2.23866E-05  9.20604E-06   25.830       49.327       1.0000       14.634
   25     6.0000       34.693       1.0301       1.0198       1.0004      0.99872
   31     1.0046      0.99878       1.0070       1.0190       1.0021      0.99384
   37    0.99319      0.98648      0.98412      0.99077      1.40775E-05  1.48996E-05
   43    1.39898E-05  1.77036E-05  1.84836E-05  3.33469E-05  1.94728E-05  1.67474E-05
   49    2.20891E-05  2.40165E-05  2.85722E-05  3.24962E-05  3.16663E-05  2.61093E-05

   TIME X- VALUE --X X--------- IDENTIFIER ---------X X- VALUE --X X--------- IDENTIFIER ---------X
 0.0417   49.327     ANGL     1[BUS1        69.000]1    22.905     ANGL     2[BUS2        69.000]1
    3     21.386     ANGL     3[BUS3        69.000]1    14.636     ANGL     6[BUS6        138.00]1
    5     20.898     ANGL     8[BUS8        69.000]1   0.81310     POWR     1[BUS1        69.000]1
    7    0.39798     POWR     2[BUS2        69.000]1   0.39812     POWR     3[BUS3        69.000]1
    9    0.29568     POWR     6[BUS6        138.00]1   0.34763     POWR     8[BUS8        69.000]1
   11    1.96817E-02 VARS     1[BUS1        69.000]1   0.14966     VARS     2[BUS2        69.000]1
   13    0.14978     VARS     3[BUS3        69.000]1   9.93056E-02 VARS     6[BUS6        138.00]1
   15    9.94251E-02 VARS     8[BUS8        69.000]1   6.25889E-06 SPD      1[BUS1        69.000]1
   17    6.34064E-06 SPD      2[BUS2        69.000]1   8.49956E-06 SPD      3[BUS3        69.000]1
   19    2.69959E-05 SPD      6[BUS6        138.00]1   1.16489E-05 SPD      8[BUS8        69.000]1
   21     25.831     AVERAGE ANGLE                      49.327     LARGEST ANGLE
   23     1.0000     BUS WITH LARGEST ANGLE             14.636     SMALLEST ANGLE
   25     6.0000     BUS WITH SMALLEST ANGLE            34.691     ANGLE SPREAD
   27     1.0301     VOLT      1 [BUS1        69.000]   1.0198     VOLT      2 [BUS2        69.000]
   29     1.0004     VOLT      3 [BUS3        69.000]  0.99872     VOLT      4 [BUS4        69.000]
   31     1.0046     VOLT      5 [BUS5        69.000]  0.99878     VOLT      6 [BUS6        138.00]
   33     1.0070     VOLT      7 [BUS7        138.00]   1.0190     VOLT      8 [BUS8        69.000]
   35     1.0021     VOLT      9 [BUS9        138.00]  0.99384     VOLT     10 [BUS10       138.00]
   37    0.99319     VOLT     11 [BUS11       138.00]  0.98649     VOLT     12 [BUS12       138.00]
   39    0.98412     VOLT     13 [BUS13       138.00]  0.99078     VOLT     14 [BUS14       138.00]
   41    1.76028E-05 FREQ      1 [BUS1        69.000]  1.85636E-05 FREQ      2 [BUS2        69.000]
   43    1.76016E-05 FREQ      3 [BUS3        69.000]  2.18179E-05 FREQ      4 [BUS4        69.000]
   45    2.26800E-05 FREQ      5 [BUS5        69.000]  3.96399E-05 FREQ      6 [BUS6        138.00]
   47    2.39446E-05 FREQ      7 [BUS7        138.00]  2.09188E-05 FREQ      8 [BUS8        69.000]
   49    2.69394E-05 FREQ      9 [BUS9        138.00]  2.91227E-05 FREQ     10 [BUS10       138.00]
   51    3.42633E-05 FREQ     11 [BUS11       138.00]  3.86993E-05 FREQ     12 [BUS12       138.00]
   53    3.77716E-05 FREQ     13 [BUS13       138.00]  3.15218E-05 FREQ     14 [BUS14       138.00]

Power flow data changed for load "1" at bus 11 [BUS11       138.00]:
X--ORIGINAL--X  X-NEW VALUE--X  DATA ITEM
   2.30748         2.31693      PL

Channel output file is "ieee_14\ieee14_run_trip_reduced_inertia.outx"

14 diagonal and 24 off-diagonal elements

   TIME X- VALUE --X X--------- IDENTIFIER ---------X X- VALUE --X X--------- IDENTIFIER ---------X
 0.0417   49.327     ANGL     1[BUS1        69.000]1    22.905     ANGL     2[BUS2        69.000]1
    3     21.386     ANGL     3[BUS3        69.000]1    14.636     ANGL     6[BUS6        138.00]1
    5     20.898     ANGL     8[BUS8        69.000]1   0.81311     POWR     1[BUS1        69.000]1
    7    0.39799     POWR     2[BUS2        69.000]1   0.39813     POWR     3[BUS3        69.000]1
    9    0.29572     POWR     6[BUS6        138.00]1   0.34764     POWR     8[BUS8        69.000]1
   11    1.96819E-02 VARS     1[BUS1        69.000]1   0.14966     VARS     2[BUS2        69.000]1
   13    0.14978     VARS     3[BUS3        69.000]1   9.93054E-02 VARS     6[BUS6        138.00]1
   15    9.94291E-02 VARS     8[BUS8        69.000]1   6.25889E-06 SPD      1[BUS1        69.000]1
   17    6.34064E-06 SPD      2[BUS2        69.000]1   8.49956E-06 SPD      3[BUS3        69.000]1
   19    2.69959E-05 SPD      6[BUS6        138.00]1   1.16489E-05 SPD      8[BUS8        69.000]1
   21     25.831     AVERAGE ANGLE                      49.327     LARGEST ANGLE
   23     1.0000     BUS WITH LARGEST ANGLE             14.636     SMALLEST ANGLE
   25     6.0000     BUS WITH SMALLEST ANGLE            34.691     ANGLE SPREAD
   27     1.0301     VOLT      1 [BUS1        69.000]   1.0198     VOLT      2 [BUS2        69.000]
   29     1.0004     VOLT      3 [BUS3        69.000]  0.99872     VOLT      4 [BUS4        69.000]
   31     1.0046     VOLT      5 [BUS5        69.000]  0.99878     VOLT      6 [BUS6        138.00]
   33     1.0070     VOLT      7 [BUS7        138.00]   1.0190     VOLT      8 [BUS8        69.000]
   35     1.0021     VOLT      9 [BUS9        138.00]  0.99384     VOLT     10 [BUS10       138.00]
   37    0.99319     VOLT     11 [BUS11       138.00]  0.98649     VOLT     12 [BUS12       138.00]
   39    0.98412     VOLT     13 [BUS13       138.00]  0.99078     VOLT     14 [BUS14       138.00]
   41    1.76028E-05 FREQ      1 [BUS1        69.000]  1.85636E-05 FREQ      2 [BUS2        69.000]
   43    1.76016E-05 FREQ      3 [BUS3        69.000]  2.18179E-05 FREQ      4 [BUS4        69.000]
   45    2.26800E-05 FREQ      5 [BUS5        69.000]  3.96399E-05 FREQ      6 [BUS6        138.00]
   47    2.39446E-05 FREQ      7 [BUS7        138.00]  2.09188E-05 FREQ      8 [BUS8        69.000]
   49    2.69394E-05 FREQ      9 [BUS9        138.00]  2.91227E-05 FREQ     10 [BUS10       138.00]
   51    3.42633E-05 FREQ     11 [BUS11       138.00]  3.86993E-05 FREQ     12 [BUS12       138.00]
   53    3.77716E-05 FREQ     13 [BUS13       138.00]  3.15218E-05 FREQ     14 [BUS14       138.00]

 0.0458   49.328       22.906       21.387       14.639       20.899      0.81302
    7    0.39794      0.39807      0.29596      0.34762      1.96963E-02  0.14966
   13    0.14976      9.92848E-02  9.94201E-02  7.86953E-06  7.75529E-06  1.04847E-05
   19    3.13176E-05  1.41046E-05   25.832       49.328       1.0000       14.639
   25     6.0000       34.689       1.0301       1.0198       1.0004      0.99873
   31     1.0046      0.99879       1.0070       1.0190       1.0021      0.99384
   37    0.99319      0.98649      0.98413      0.99078      2.07157E-05  2.17759E-05
   43    2.08254E-05  2.53396E-05  2.62368E-05  4.45029E-05  2.77476E-05  2.45883E-05
   49    3.09806E-05  3.33154E-05  3.87869E-05  4.35234E-05  4.25420E-05  3.59044E-05

 0.0500   49.329       22.907       21.388       14.642       20.901      0.81294
    7    0.39788      0.39802      0.29616      0.34759      1.97085E-02  0.14966
   13    0.14974      9.92681E-02  9.94104E-02  9.55207E-06  9.19949E-06  1.25175E-05
   19    3.53835E-05  1.65631E-05   25.833       49.329       1.0000       14.642
   25     6.0000       34.687       1.0301       1.0198       1.0004      0.99874
   31     1.0046      0.99880       1.0070       1.0190       1.0021      0.99385
   37    0.99320      0.98650      0.98414      0.99079      2.34258E-05  2.45461E-05
   43    2.36461E-05  2.82841E-05  2.91907E-05  4.81610E-05  3.08915E-05  2.77698E-05
   49    3.42118E-05  3.66235E-05  4.22713E-05  4.71491E-05  4.61387E-05  3.92755E-05

 0.0542   49.330       22.908       21.389       14.645       20.902      0.81287
    7    0.39784      0.39797      0.29634      0.34758      1.97184E-02  0.14966
   13    0.14971      9.92548E-02  9.93990E-02  1.13049E-05  1.06804E-05  1.46063E-05
   19    3.92683E-05  1.90338E-05   25.835       49.330       1.0000       14.645
   25     6.0000       34.685       1.0301       1.0198       1.0004      0.99874
   31     1.0046      0.99881       1.0070       1.0190       1.0021      0.99385
   37    0.99321      0.98651      0.98415      0.99079      2.58746E-05  2.70346E-05
   43    2.62183E-05  3.08960E-05  3.17830E-05  5.10190E-05  3.36655E-05  3.06100E-05
   49    3.70343E-05  3.94600E-05  4.51222E-05  5.00240E-05  4.90165E-05  4.21551E-05

 0.0583   49.331       22.909       21.391       14.649       20.904      0.81281
    7    0.39779      0.39793      0.29650      0.34756      1.97274E-02  0.14966
   13    0.14969      9.92439E-02  9.93860E-02  1.31202E-05  1.21934E-05  1.67413E-05
   19    4.29725E-05  2.15075E-05   25.837       49.331       1.0000       14.649
   25     6.0000       34.682       1.0301       1.0198       1.0005      0.99875
   31     1.0046      0.99882       1.0070       1.0190       1.0021      0.99386
   37    0.99321      0.98652      0.98415      0.99080      2.81195E-05  2.93032E-05
   43    2.85881E-05  3.32378E-05  3.40916E-05  5.33200E-05  3.61265E-05  3.31808E-05
   49    3.94957E-05  4.19016E-05  4.74980E-05  5.23557E-05  5.13650E-05  4.46001E-05

   TIME X- VALUE --X X--------- IDENTIFIER ---------X X- VALUE --X X--------- IDENTIFIER ---------X
 0.0625   49.332     ANGL     1[BUS1        69.000]1    22.910     ANGL     2[BUS2        69.000]1
    3     21.392     ANGL     3[BUS3        69.000]1    14.653     ANGL     6[BUS6        138.00]1
    5     20.906     ANGL     8[BUS8        69.000]1   0.81275     POWR     1[BUS1        69.000]1
    7    0.39775     POWR     2[BUS2        69.000]1   0.39789     POWR     3[BUS3        69.000]1
    9    0.29665     POWR     6[BUS6        138.00]1   0.34755     POWR     8[BUS8        69.000]1
   11    1.97336E-02 VARS     1[BUS1        69.000]1   0.14967     VARS     2[BUS2        69.000]1
   13    0.14966     VARS     3[BUS3        69.000]1   9.92332E-02 VARS     6[BUS6        138.00]1
   15    9.93734E-02 VARS     8[BUS8        69.000]1   1.49904E-05 SPD      1[BUS1        69.000]1
   17    1.37361E-05 SPD      2[BUS2        69.000]1   1.89181E-05 SPD      3[BUS3        69.000]1
   19    4.65142E-05 SPD      6[BUS6        138.00]1   2.39799E-05 SPD      8[BUS8        69.000]1
   21     25.839     AVERAGE ANGLE                      49.332     LARGEST ANGLE
   23     1.0000     BUS WITH LARGEST ANGLE             14.653     SMALLEST ANGLE
   25     6.0000     BUS WITH SMALLEST ANGLE            34.679     ANGLE SPREAD
   27     1.0301     VOLT      1 [BUS1        69.000]   1.0198     VOLT      2 [BUS2        69.000]
   29     1.0005     VOLT      3 [BUS3        69.000]  0.99876     VOLT      4 [BUS4        69.000]
   31     1.0046     VOLT      5 [BUS5        69.000]  0.99883     VOLT      6 [BUS6        138.00]
   33     1.0070     VOLT      7 [BUS7        138.00]   1.0190     VOLT      8 [BUS8        69.000]
   35     1.0021     VOLT      9 [BUS9        138.00]  0.99387     VOLT     10 [BUS10       138.00]
   37    0.99322     VOLT     11 [BUS11       138.00]  0.98653     VOLT     12 [BUS12       138.00]
   39    0.98416     VOLT     13 [BUS13       138.00]  0.99081     VOLT     14 [BUS14       138.00]
   41    3.01889E-05 FREQ      1 [BUS1        69.000]  3.13825E-05 FREQ      2 [BUS2        69.000]
   43    3.07776E-05 FREQ      3 [BUS3        69.000]  3.53473E-05 FREQ      4 [BUS4        69.000]
   45    3.61584E-05 FREQ      5 [BUS5        69.000]  5.51578E-05 FREQ      6 [BUS6        138.00]
   47    3.83178E-05 FREQ      7 [BUS7        138.00]  3.55138E-05 FREQ      8 [BUS8        69.000]
   49    4.16494E-05 FREQ      9 [BUS9        138.00]  4.40059E-05 FREQ     10 [BUS10       138.00]
   51    4.94761E-05 FREQ     11 [BUS11       138.00]  5.42346E-05 FREQ     12 [BUS12       138.00]
   53    5.32718E-05 FREQ     13 [BUS13       138.00]  4.66778E-05 FREQ     14 [BUS14       138.00]
